Version 4
SHEET 1 2088 960
WIRE 0 -224 -448 -224
WIRE 0 -176 0 -224
WIRE 496 -144 352 -144
WIRE 496 -128 496 -144
WIRE -192 -80 -288 -80
WIRE 0 -48 0 -96
WIRE 176 -48 0 -48
WIRE 352 -48 352 -144
WIRE 352 -48 288 -48
WIRE -288 -32 -288 -80
WIRE 176 -16 0 -16
WIRE 496 -16 496 -64
WIRE 496 -16 288 -16
WIRE -288 80 -288 48
WIRE 0 144 0 -16
WIRE -320 176 -848 176
WIRE -48 176 -208 176
WIRE -320 208 -624 208
WIRE -192 208 -192 -80
WIRE -192 208 -208 208
WIRE -160 240 -208 240
WIRE -448 288 -448 -224
WIRE -848 304 -848 176
WIRE -624 304 -624 208
WIRE 848 400 560 400
WIRE 896 400 848 400
WIRE 1168 400 960 400
WIRE 1264 400 1168 400
WIRE 1600 400 1520 400
WIRE -848 448 -848 384
WIRE -624 448 -624 384
WIRE -624 448 -848 448
WIRE -448 448 -448 368
WIRE -448 448 -624 448
WIRE -160 448 -160 240
WIRE -160 448 -448 448
WIRE 0 448 0 208
WIRE 0 448 -160 448
WIRE 1168 448 1168 400
WIRE 1600 464 1600 400
WIRE -160 496 -160 448
WIRE 560 512 560 400
WIRE 1168 576 1168 512
WIRE 1344 576 1168 576
WIRE 1392 576 1392 496
WIRE 1392 576 1344 576
WIRE 1600 576 1600 528
WIRE 1600 576 1392 576
WIRE 1344 608 1344 576
WIRE 1168 640 1168 576
WIRE 1600 640 1600 576
WIRE 1392 672 1392 576
WIRE 560 720 560 592
WIRE 848 768 848 400
WIRE 896 768 848 768
WIRE 1168 768 1168 704
WIRE 1168 768 960 768
WIRE 1264 768 1168 768
WIRE 1600 768 1600 704
WIRE 1600 768 1520 768
FLAG -160 496 0
FLAG -288 80 0
FLAG 1344 608 0
FLAG 560 720 0
SYMBOL voltage -448 272 R0
WINDOW 123 0 0 Left 0
WINDOW 39 0 0 Left 0
SYMATTR InstName V1
SYMATTR Value 12
SYMBOL res -16 -192 R0
SYMATTR InstName R3
SYMATTR Value 860
SYMBOL cap 480 -128 R0
SYMATTR InstName C1
SYMATTR Value 100p
SYMBOL SN74LVC2G125 -272 208 R0
SYMATTR InstName U2
SYMBOL voltage -848 288 R0
WINDOW 123 0 0 Left 0
WINDOW 39 0 0 Left 0
SYMATTR InstName V2
SYMATTR Value PULSE(0 3.3 0 1n 1n 20m 40m 4)
SYMBOL voltage -624 288 R0
WINDOW 123 0 0 Left 0
WINDOW 39 0 0 Left 0
SYMATTR InstName V3
SYMATTR Value PULSE(0 0 0 1n 1n 20m 40m 4)
SYMBOL voltage -288 -48 R0
WINDOW 123 0 0 Left 0
WINDOW 39 0 0 Left 0
SYMATTR InstName V4
SYMATTR Value 3.3
SYMBOL DTD123EK -16 176 R0
SYMATTR InstName U3
SYMBOL VOM1271T 224 -32 R0
SYMATTR InstName U1
SYMBOL PowerProducts\\LT1117-3.3 1392 400 R0
SYMATTR InstName U4
SYMBOL cap 1584 464 R0
SYMATTR InstName C2
SYMATTR Value 100µ
SYMBOL diode 896 416 R270
WINDOW 0 32 32 VTop 2
WINDOW 3 0 32 VBottom 2
SYMATTR InstName D1
SYMATTR Value 1N4148
SYMBOL voltage 560 496 R0
WINDOW 123 0 0 Left 0
WINDOW 39 0 0 Left 0
SYMATTR InstName V5
SYMATTR Value SINE(0 {1.41*24} 50)
SYMBOL cap 1152 448 R0
SYMATTR InstName C4
SYMATTR Value 100µ
SYMBOL cap 1584 640 R0
SYMATTR InstName C3
SYMATTR Value 100µ
SYMBOL cap 1152 640 R0
SYMATTR InstName C6
SYMATTR Value 100µ
SYMBOL PowerProducts\\LT1117-3.3 1392 768 M180
SYMATTR InstName U5
SYMBOL diode 960 752 R90
WINDOW 0 0 32 VBottom 2
WINDOW 3 32 32 VTop 2
SYMATTR InstName D2
SYMATTR Value 1N4148
TEXT -480 520 Left 2 !.tran 100m
