Version 4
SHEET 1 3820 1476
WIRE 2272 -96 2272 -112
WIRE 736 -64 736 -240
WIRE 768 -64 736 -64
WIRE 480 -32 480 -96
WIRE 608 -32 480 -32
WIRE 736 -32 736 -64
WIRE 768 -32 768 -64
WIRE 480 0 480 -32
WIRE 1520 0 1520 -16
WIRE 1664 0 1664 -16
WIRE 1664 0 1520 0
WIRE 2272 0 2272 -32
WIRE 2272 0 1664 0
WIRE 608 16 608 -32
WIRE 704 16 608 16
WIRE 1664 32 1664 0
WIRE 1136 48 848 48
WIRE 704 80 608 80
WIRE 2272 96 2272 0
WIRE 480 128 480 80
WIRE 608 128 608 80
WIRE 608 128 480 128
WIRE 736 160 736 128
WIRE 768 160 768 128
WIRE 768 160 736 160
WIRE 1664 160 1664 112
WIRE 480 208 480 128
WIRE 736 208 736 160
WIRE 736 208 480 208
WIRE 736 240 736 208
WIRE 1488 240 1488 192
WIRE 2272 240 2272 160
WIRE 1136 256 1056 256
WIRE 1280 256 1216 256
WIRE 1280 352 1280 256
WIRE 1328 352 1280 352
WIRE 1488 352 1488 320
WIRE 1488 352 1408 352
WIRE 880 368 880 336
WIRE 1488 416 1488 352
WIRE 416 432 208 432
WIRE 560 432 560 352
WIRE 560 432 416 432
WIRE 736 432 560 432
WIRE 1184 432 1184 368
WIRE 1280 432 1280 352
WIRE 1312 432 1280 432
WIRE 1280 448 1280 432
WIRE 1280 448 1216 448
WIRE 208 464 208 432
WIRE 416 464 416 432
WIRE 880 464 880 448
WIRE 960 464 880 464
WIRE 1056 464 1056 256
WIRE 1056 464 1040 464
WIRE 1152 464 1056 464
WIRE 2400 464 2400 336
WIRE 880 480 880 464
WIRE 1280 480 1216 480
WIRE 1280 496 1280 480
WIRE 1312 496 1280 496
WIRE -64 512 -320 512
WIRE 48 512 16 512
WIRE 144 512 48 512
WIRE 560 528 560 432
WIRE 1184 544 1184 496
WIRE 1824 560 1824 480
WIRE 1968 560 1968 480
WIRE 2144 560 2144 480
WIRE 2304 560 2304 480
WIRE 2608 560 2608 480
WIRE 48 576 48 512
WIRE 416 576 416 544
WIRE 496 576 416 576
WIRE 880 576 880 544
WIRE 1280 576 1280 496
WIRE 1344 576 1280 576
WIRE 1488 576 1488 496
WIRE 1488 576 1424 576
WIRE -320 592 -320 512
WIRE 1280 608 1280 576
WIRE 144 656 144 512
WIRE 256 656 144 656
WIRE 416 656 416 576
WIRE 416 656 352 656
WIRE 144 688 144 656
WIRE 1488 704 1488 576
WIRE 1280 720 1280 688
WIRE 1824 720 1824 640
WIRE 1968 720 1968 640
WIRE 2144 720 2144 640
WIRE 2304 720 2304 640
WIRE 2400 720 2400 544
WIRE 2608 720 2608 640
WIRE -320 784 -320 672
WIRE 48 784 48 656
WIRE 48 784 -320 784
WIRE 144 784 144 752
WIRE 144 784 48 784
WIRE 208 784 208 560
WIRE 208 784 144 784
WIRE 304 784 304 720
WIRE 304 784 208 784
WIRE 560 784 560 624
WIRE 560 784 304 784
WIRE 560 832 560 784
WIRE 480 1152 400 1152
WIRE 848 1152 608 1152
WIRE 656 1248 608 1248
WIRE 656 1264 656 1248
WIRE 768 1264 656 1264
WIRE 656 1280 656 1264
WIRE 656 1280 608 1280
WIRE 480 1376 400 1376
WIRE 720 1376 608 1376
WIRE 848 1376 720 1376
WIRE 720 1424 720 1376
FLAG 2400 720 0
FLAG 1968 480 8V
FLAG 1184 368 8V
FLAG 1968 720 0
FLAG 2144 720 0
FLAG 2304 720 0
FLAG 2144 480 3V3
FLAG 2304 480 -4V5
FLAG 736 -240 3V3
FLAG 1280 720 0
FLAG 1184 544 -4V5
FLAG 736 240 0
FLAG 2400 336 ac
FLAG 480 -176 ac
FLAG 1488 192 ac
FLAG 1488 704 0
FLAG 880 336 3V3
FLAG 880 576 0
FLAG 2608 720 0
FLAG 2608 480 SW
FLAG 560 272 3V3
FLAG 560 832 0
FLAG 1520 -96 ac
FLAG 1664 160 0
FLAG 1664 -96 3V3
FLAG 2272 240 0
FLAG 2272 -112 3V3
FLAG 1824 480 L
FLAG 1824 720 N
FLAG 400 1152 L
FLAG 400 1376 N
FLAG 720 1424 0
SYMBOL voltage 2400 448 R0
WINDOW 123 0 0 Left 0
WINDOW 39 0 0 Left 0
SYMATTR InstName V1
SYMATTR Value SINE(0 34 50)
SYMBOL OpAmps\\AD8418A 736 48 R0
SYMATTR InstName U2
SYMBOL res 464 -16 R0
SYMATTR InstName R1
SYMATTR Value 5m
SYMBOL res 496 -80 R180
WINDOW 0 36 76 Left 2
WINDOW 3 36 40 Left 2
SYMATTR InstName R2
SYMATTR Value 2.6
SYMBOL OpAmps\\OP07 1184 400 M0
SYMATTR InstName U1
SYMBOL res 1312 336 M90
WINDOW 0 0 56 VBottom 2
WINDOW 3 32 56 VTop 2
SYMATTR InstName R3
SYMATTR Value 20k
SYMBOL res 1328 560 M90
WINDOW 0 0 56 VBottom 2
WINDOW 3 32 56 VTop 2
SYMATTR InstName R4
SYMATTR Value 20k
SYMBOL cap 1296 432 R0
SYMATTR InstName C1
SYMATTR Value 100n
SYMBOL voltage 1968 544 R0
WINDOW 123 0 0 Left 0
WINDOW 39 0 0 Left 0
SYMATTR InstName V3
SYMATTR Value 8
SYMBOL voltage 2144 544 R0
WINDOW 123 0 0 Left 0
WINDOW 39 0 0 Left 0
SYMATTR InstName V4
SYMATTR Value 3.3
SYMBOL voltage 2304 544 R0
WINDOW 123 0 0 Left 0
WINDOW 39 0 0 Left 0
SYMATTR InstName V5
SYMATTR Value -4.5
SYMBOL res 1264 592 R0
SYMATTR InstName R5
SYMATTR Value 453k
SYMBOL res 1232 240 R90
WINDOW 0 0 56 VBottom 2
WINDOW 3 32 56 VTop 2
SYMATTR InstName R6
SYMATTR Value 453k
SYMBOL res 1472 400 R0
SYMATTR InstName R7
SYMATTR Value 5m
SYMBOL res 1504 336 R180
WINDOW 0 36 76 Left 2
WINDOW 3 36 40 Left 2
SYMATTR InstName R8
SYMATTR Value 2.6
SYMBOL res 1056 448 R90
WINDOW 0 0 56 VBottom 2
WINDOW 3 32 56 VTop 2
SYMATTR InstName R9
SYMATTR Value 3k3
SYMBOL res 896 464 R180
WINDOW 0 36 76 Left 2
WINDOW 3 36 40 Left 2
SYMATTR InstName R10
SYMATTR Value 3k3
SYMBOL cap 864 480 R0
SYMATTR InstName C2
SYMATTR Value 100n
SYMBOL voltage 2608 544 R0
WINDOW 123 0 0 Left 0
WINDOW 39 0 0 Left 0
WINDOW 3 -173 105 Left 2
SYMATTR InstName V2
SYMATTR Value PULSE(0 3.3 20m 10n 10n 20m)
SYMBOL res 32 560 R0
SYMATTR InstName R14
SYMATTR Value 47k
SYMBOL res 544 256 R0
SYMATTR InstName R16
SYMATTR Value 10k
SYMBOL npn 144 464 R0
SYMATTR InstName Q2
SYMATTR Value BC847A
SYMBOL npn 352 720 M270
SYMATTR InstName Q1
SYMATTR Value BC847A
SYMBOL pnp 496 624 M180
SYMATTR InstName Q3
SYMATTR Value BC858B
SYMBOL voltage -320 576 R0
WINDOW 123 0 0 Left 0
WINDOW 39 0 0 Left 0
SYMATTR InstName V6
SYMATTR Value PULSE(0 3.3 10m 1n 1n 10 0 3)
SYMBOL res 400 448 R0
SYMATTR InstName R11
SYMATTR Value 47k
SYMBOL cap 128 688 R0
SYMATTR InstName C3
SYMATTR Value 10µ
SYMBOL res 32 496 R90
WINDOW 0 0 56 VBottom 2
WINDOW 3 32 56 VTop 2
SYMATTR InstName R12
SYMATTR Value 470
SYMBOL res 1504 -112 R0
SYMATTR InstName R13
SYMATTR Value 1Meg
SYMBOL res 1648 -112 R0
SYMATTR InstName R15
SYMATTR Value 100k
SYMBOL res 1648 16 R0
SYMATTR InstName R17
SYMATTR Value 100k
SYMBOL diode 2288 160 R180
WINDOW 0 24 64 Left 2
WINDOW 3 24 0 Left 2
SYMATTR InstName D1
SYMATTR Value DI_BAT54S
SYMBOL diode 2288 -32 R180
WINDOW 0 24 64 Left 2
WINDOW 3 24 0 Left 2
SYMATTR InstName D2
SYMATTR Value DI_BAT54S
SYMBOL voltage 1824 544 R0
WINDOW 123 0 0 Left 0
WINDOW 39 0 0 Left 0
SYMATTR InstName V7
SYMATTR Value SINE(0 325 50)
SYMBOL sedlbauer\\SAG_825050_series 480 1152 R0
SYMATTR InstName U4
TEXT 2360 744 Left 2 !.tran 100m
TEXT 2520 56 Left 2 !.MODEL DI_BAT54S D  ( IS=34.9u RS=0.210 BV=30.0 IBV=2.00u\n+ CJO=13.3p  M=0.333 N=2.28 TT=7.20n )
